opendss_networks/LV24_246bus/Switches.dss
new line.Switch_368_CLOSED lineCode=ughv_400al_triplex_ug_4w_bundled bus1=B2726 bus2=B1560 length=0.00100000000000 units=km switch=y phases=4
new line.Switch_1046_CLOSED lineCode=ughv_400al_triplex_ug_4w_bundled bus1=B254 bus2=B2497 length=0.00100000000000 units=km switch=y phases=4
new line.Switch_1563_CLOSED lineCode=ughv_400al_triplex_ug_4w_bundled bus1=B294 bus2=B3281 length=0.00100000000000 units=km switch=y phases=4
! new line.Switch_1672_OPEN lineCode=ughv_400al_triplex_ug_4w_bundled bus1=B302 bus2=B2528 length=0.00100000000000 units=km switch=y phases=4
new line.Switch_2917_CLOSED lineCode=ughv_400al_triplex_ug_4w_bundled bus1=B779 bus2=B1607 length=0.00100000000000 units=km switch=y phases=4
new line.Switch_2927_CLOSED lineCode=ughv_400al_triplex_ug_4w_bundled bus1=B3034 bus2=B1350 length=0.00100000000000 units=km switch=y phases=4
new line.Switch_3051_CLOSED lineCode=ughv_400al_triplex_ug_4w_bundled bus1=B3328 bus2=B1394 length=0.00100000000000 units=km switch=y phases=4
new line.Switch_3663_CLOSED lineCode=ughv_400al_triplex_ug_4w_bundled bus1=B2949 bus2=B3028 length=0.00100000000000 units=km switch=y phases=4
new line.Switch_3704_CLOSED lineCode=ughv_400al_triplex_ug_4w_bundled bus1=B3146 bus2=B899 length=0.00100000000000 units=km switch=y phases=4
new line.Switch_4228_CLOSED lineCode=ughv_400al_triplex_ug_4w_bundled bus1=B448 bus2=B732 length=0.00100000000000 units=km switch=y phases=4
! new line.Switch_4310_OPEN lineCode=ughv_400al_triplex_ug_4w_bundled bus1=B2260 bus2=B2735 length=0.00100000000000 units=km switch=y phases=4
